electric-grid/physical/synthetic/synAustinTD/models/syn-austin-D_only-v03/P1U/base/opendss/Master.dss
Clear

New Circuit.Full_Network bus1=st_mat pu=1.0 basekV=230.0 R1=0.00001 X1=0.00001 R0=0.00001 X0=0.00001

Redirect p1uhs19_1247/Transformers.dss
Redirect p1uhs19_1247/p1uhs19_1247--p1udt14631/Transformers.dss
Redirect p1uhs19_1247/p1uhs19_1247--p1udt17263/Transformers.dss
Redirect p1uhs5_1247/p1uhs5_1247--p1udt13240/Transformers.dss
Redirect p1uhs5_1247/Transformers.dss
Redirect p1uhs5_1247/p1uhs5_1247--p1udt19613/Transformers.dss
Redirect p1uhs5_1247/p1uhs5_1247--p1udt21449/Transformers.dss
Redirect p1uhs10_1247/Transformers.dss
Redirect p1uhs10_1247/p1uhs10_1247--p1udt14394/Transformers.dss
Redirect p1uhs10_1247/p1uhs10_1247--p1udt20878/Transformers.dss
Redirect p1uhs10_1247/p1uhs10_1247--p1udt12591/Transformers.dss
Redirect p1uhs10_1247/p1uhs10_1247--p1udt6120/Transformers.dss
Redirect p1uhs10_1247/p1uhs10_1247--p1udt22980/Transformers.dss
Redirect p1uhs3_1247/Transformers.dss
Redirect p1uhs3_1247/p1uhs3_1247--p1udt13260/Transformers.dss
Redirect p1uhs3_1247/p1uhs3_1247--p1udt6119/Transformers.dss
Redirect p1uhs14_1247/Transformers.dss
Redirect p1uhs14_1247/p1uhs14_1247--p1udt6143/Transformers.dss
Redirect p1uhs14_1247/p1uhs14_1247--p1udt7899/Transformers.dss
Redirect p1uhs14_1247/p1uhs14_1247--p1udt9467/Transformers.dss
Redirect p1uhs14_1247/p1uhs14_1247--p1udt21168/Transformers.dss
Redirect p1uhs17_1247/Transformers.dss
Redirect p1uhs17_1247/p1uhs17_1247--p1udt19976/Transformers.dss
Redirect p1uhs17_1247/p1uhs17_1247--p1udt21587/Transformers.dss
Redirect p1uhs17_1247/p1uhs17_1247--p1udt1947/Transformers.dss
Redirect p1uhs1_1247/p1uhs1_1247--p1udt10929/Transformers.dss
Redirect p1uhs1_1247/p1uhs1_1247--p1udt138/Transformers.dss
Redirect p1uhs1_1247/Transformers.dss
Redirect p1uhs1_1247/p1uhs1_1247--p1udt14149/Transformers.dss
Redirect p1uhs20_1247/p1uhs20_1247--p1udt10621/Transformers.dss
Redirect p1uhs20_1247/Transformers.dss
Redirect p1uhs20_1247/p1uhs20_1247--p1udt1456/Transformers.dss
Redirect p1uhs20_1247/p1uhs20_1247--p1udt16446/Transformers.dss
Redirect p1uhs20_1247/p1uhs20_1247--p1udt2578/Transformers.dss
Redirect p1uhs8_1247/p1uhs8_1247--p1udt4671/Transformers.dss
Redirect p1uhs8_1247/p1uhs8_1247--p1udt22258/Transformers.dss
Redirect p1uhs8_1247/p1uhs8_1247--p1udt2544/Transformers.dss
Redirect p1uhs8_1247/Transformers.dss
Redirect p1uhs21_1247/p1uhs21_1247--p1udt11662/Transformers.dss
Redirect p1uhs21_1247/Transformers.dss
Redirect p1uhs21_1247/p1uhs21_1247--p1udt16206/Transformers.dss
Redirect p1uhs21_1247/p1uhs21_1247--p1udt5257/Transformers.dss
Redirect p1uhs21_1247/p1uhs21_1247--p1udt20780/Transformers.dss
Redirect p1uhs16_1247/Transformers.dss
Redirect p1uhs16_1247/p1uhs16_1247--p1udt22164/Transformers.dss
Redirect p1uhs16_1247/p1uhs16_1247--p1udt7988/Transformers.dss
Redirect p1uhs16_1247/p1uhs16_1247--p1udt16473/Transformers.dss
Redirect p1uhs16_1247/p1uhs16_1247--p1udt11006/Transformers.dss
Redirect p1uhs12_1247/Transformers.dss
Redirect p1uhs12_1247/p1uhs12_1247--p1udt14325/Transformers.dss
Redirect p1uhs12_1247/p1uhs12_1247--p1udt11164/Transformers.dss
Redirect p1uhs12_1247/p1uhs12_1247--p1udt8950/Transformers.dss
Redirect p1uhs12_1247/p1uhs12_1247--p1udt8568/Transformers.dss
Redirect p1uhs12_1247/p1uhs12_1247--p1udt23696/Transformers.dss
Redirect p1uhs12_1247/p1uhs12_1247--p1udt23867/Transformers.dss
Redirect p1uhs0_1247/Transformers.dss
Redirect p1uhs0_1247/p1uhs0_1247--p1udt22170/Transformers.dss
Redirect p1uhs0_1247/p1uhs0_1247--p1udt12703/Transformers.dss
Redirect p1uhs0_1247/p1uhs0_1247--p1udt2142/Transformers.dss
Redirect p1uhs2_1247/Transformers.dss
Redirect p1uhs2_1247/p1uhs2_1247--p1udt9621/Transformers.dss
Redirect p1uhs2_1247/p1uhs2_1247--p1udt8846/Transformers.dss
Redirect p1uhs2_1247/p1uhs2_1247--p1udt18962/Transformers.dss
Redirect p1uhs2_1247/p1uhs2_1247--p1udt18580/Transformers.dss
Redirect p1uhs2_1247/p1uhs2_1247--p1udt18369/Transformers.dss
Redirect p1uhs2_1247/p1uhs2_1247--p1udt899/Transformers.dss
Redirect p1uhs6_1247/p1uhs6_1247--p1udt14764/Transformers.dss
Redirect p1uhs6_1247/p1uhs6_1247--p1udt322/Transformers.dss
Redirect p1uhs6_1247/p1uhs6_1247--p1udt7653/Transformers.dss
Redirect p1uhs6_1247/Transformers.dss
Redirect p1uhs9_1247/Transformers.dss
Redirect p1uhs9_1247/p1uhs9_1247--p1udt19234/Transformers.dss
Redirect p1uhs9_1247/p1uhs9_1247--p1udt13121/Transformers.dss
Redirect p1uhs9_1247/p1uhs9_1247--p1udt20362/Transformers.dss
Redirect p1uhs9_1247/p1uhs9_1247--p1udt20692/Transformers.dss
Redirect p1uhs9_1247/p1uhs9_1247--p1udt25123/Transformers.dss
Redirect p1uhs9_1247/p1uhs9_1247--p1udt20546/Transformers.dss
Redirect p1uhs9_1247/p1uhs9_1247--p1udt387/Transformers.dss
Redirect p1uhs9_1247/p1uhs9_1247--p1udt22357/Transformers.dss
Redirect p1uhs9_1247/p1uhs9_1247--p1udt21523/Transformers.dss
Redirect p1uhs9_1247/p1uhs9_1247--p1udt21819/Transformers.dss
Redirect p1uhs9_1247/p1uhs9_1247--p1udt13187/Transformers.dss
Redirect p1uhs9_1247/p1uhs9_1247--p1udt4409/Transformers.dss
Redirect p1uhs9_1247/p1uhs9_1247--p1udt22325/Transformers.dss
Redirect p1uhs9_1247/p1uhs9_1247--p1udt6854/Transformers.dss
Redirect p1uhs15_1247/Transformers.dss
Redirect p1uhs15_1247/p1uhs15_1247--p1udt17622/Transformers.dss
Redirect p1uhs15_1247/p1uhs15_1247--p1udt9658/Transformers.dss
Redirect p1uhs15_1247/p1uhs15_1247--p1udt2795/Transformers.dss
Redirect p1uhs11_1247/Transformers.dss
Redirect p1uhs11_1247/p1uhs11_1247--p1udt12111/Transformers.dss
Redirect p1uhs11_1247/p1uhs11_1247--p1udt22445/Transformers.dss
Redirect p1uhs11_1247/p1uhs11_1247--p1udt25287/Transformers.dss
Redirect p1uhs4_1247/Transformers.dss
Redirect p1uhs4_1247/p1uhs4_1247--p1udt7282/Transformers.dss
Redirect p1uhs4_1247/p1uhs4_1247--p1udt21090/Transformers.dss
Redirect p1uhs7_1247/Transformers.dss
Redirect p1uhs7_1247/p1uhs7_1247--p1udt1702/Transformers.dss
Redirect p1uhs7_1247/p1uhs7_1247--p1udt14301/Transformers.dss
Redirect p1uhs22_1247/Transformers.dss
Redirect p1uhs22_1247/p1uhs22_1247--p1udt24311/Transformers.dss
Redirect p1uhs22_1247/p1uhs22_1247--p1udt20099/Transformers.dss
Redirect p1uhs22_1247/p1uhs22_1247--p1udt24624/Transformers.dss
Redirect p1uhs22_1247/p1uhs22_1247--p1udt6863/Transformers.dss
Redirect p1uhs13_1247/Transformers.dss
Redirect p1uhs13_1247/p1uhs13_1247--p1udt12530/Transformers.dss
Redirect p1uhs13_1247/p1uhs13_1247--p1udt8187/Transformers.dss
Redirect p1uhs13_1247/p1uhs13_1247--p1udt21698/Transformers.dss
Redirect p1uhs13_1247/p1uhs13_1247--p1udt10118/Transformers.dss
Redirect p1uhs13_1247/p1uhs13_1247--p1udt3522/Transformers.dss
Redirect p1uhs23_1247/Transformers.dss
Redirect p1uhs23_1247/p1uhs23_1247--p1udt25139/Transformers.dss
Redirect p1uhs23_1247/p1uhs23_1247--p1udt21301/Transformers.dss
Redirect p1uhs18_1247/Transformers.dss
Redirect p1uhs18_1247/p1uhs18_1247--p1udt20846/Transformers.dss
Redirect p1uhs18_1247/p1uhs18_1247--p1udt6910/Transformers.dss
Redirect p1uhs18_1247/p1uhs18_1247--p1udt15617/Transformers.dss
Redirect p1uhs24_1247/Transformers.dss
Redirect p1uhs24_1247/p1uhs24_1247--p1umv22/Transformers.dss
Redirect p1uhs24_1247/p1uhs24_1247--p1umv26/Transformers.dss
Redirect subtransmission/Transformers.dss
Redirect p1uhs19_1247/Regulators.dss
Redirect p1uhs0_1247/Regulators.dss
Redirect p1uhs5_1247/Regulators.dss
Redirect p1uhs10_1247/Regulators.dss
Redirect p1uhs3_1247/Regulators.dss
Redirect p1uhs14_1247/Regulators.dss
Redirect p1uhs17_1247/Regulators.dss
Redirect p1uhs1_1247/Regulators.dss
Redirect p1uhs20_1247/Regulators.dss
Redirect p1uhs8_1247/Regulators.dss
Redirect p1uhs21_1247/Regulators.dss
Redirect p1uhs16_1247/Regulators.dss
Redirect p1uhs12_1247/Regulators.dss
Redirect p1uhs2_1247/Regulators.dss
Redirect p1uhs6_1247/Regulators.dss
Redirect p1uhs9_1247/Regulators.dss
Redirect p1uhs15_1247/Regulators.dss
Redirect p1uhs11_1247/Regulators.dss
Redirect p1uhs4_1247/Regulators.dss
Redirect p1uhs7_1247/Regulators.dss
Redirect p1uhs22_1247/Regulators.dss
Redirect p1uhs13_1247/Regulators.dss
Redirect p1uhs23_1247/Regulators.dss
Redirect p1uhs18_1247/Regulators.dss
Redirect p1uhs24_1247/Regulators.dss
Redirect p1uhs19_1247/p1uhs19_1247--p1udt14631/Loads.dss
Redirect p1uhs19_1247/p1uhs19_1247--p1udt17263/Loads.dss
Redirect p1uhs5_1247/p1uhs5_1247--p1udt13240/Loads.dss
Redirect p1uhs5_1247/p1uhs5_1247--p1udt19613/Loads.dss
Redirect p1uhs5_1247/p1uhs5_1247--p1udt21449/Loads.dss
Redirect p1uhs10_1247/p1uhs10_1247--p1udt14394/Loads.dss
Redirect p1uhs10_1247/p1uhs10_1247--p1udt20878/Loads.dss
Redirect p1uhs10_1247/p1uhs10_1247--p1udt12591/Loads.dss
Redirect p1uhs10_1247/p1uhs10_1247--p1udt6120/Loads.dss
Redirect p1uhs10_1247/p1uhs10_1247--p1udt22980/Loads.dss
Redirect p1uhs3_1247/p1uhs3_1247--p1udt13260/Loads.dss
Redirect p1uhs3_1247/p1uhs3_1247--p1udt6119/Loads.dss
Redirect p1uhs14_1247/p1uhs14_1247--p1udt6143/Loads.dss
Redirect p1uhs14_1247/p1uhs14_1247--p1udt7899/Loads.dss
Redirect p1uhs14_1247/p1uhs14_1247--p1udt21168/Loads.dss
Redirect p1uhs14_1247/p1uhs14_1247--p1udt9467/Loads.dss
Redirect p1uhs17_1247/p1uhs17_1247--p1udt19976/Loads.dss
Redirect p1uhs17_1247/p1uhs17_1247--p1udt21587/Loads.dss
Redirect p1uhs17_1247/p1uhs17_1247--p1udt1947/Loads.dss
Redirect p1uhs1_1247/p1uhs1_1247--p1udt10929/Loads.dss
Redirect p1uhs1_1247/p1uhs1_1247--p1udt138/Loads.dss
Redirect p1uhs1_1247/p1uhs1_1247--p1udt14149/Loads.dss
Redirect p1uhs20_1247/p1uhs20_1247--p1udt10621/Loads.dss
Redirect p1uhs20_1247/p1uhs20_1247--p1udt1456/Loads.dss
Redirect p1uhs20_1247/p1uhs20_1247--p1udt16446/Loads.dss
Redirect p1uhs20_1247/p1uhs20_1247--p1udt2578/Loads.dss
Redirect p1uhs8_1247/p1uhs8_1247--p1udt4671/Loads.dss
Redirect p1uhs8_1247/p1uhs8_1247--p1udt22258/Loads.dss
Redirect p1uhs8_1247/p1uhs8_1247--p1udt2544/Loads.dss
Redirect p1uhs21_1247/p1uhs21_1247--p1udt11662/Loads.dss
Redirect p1uhs21_1247/p1uhs21_1247--p1udt20780/Loads.dss
Redirect p1uhs21_1247/p1uhs21_1247--p1udt16206/Loads.dss
Redirect p1uhs21_1247/p1uhs21_1247--p1udt5257/Loads.dss
Redirect p1uhs16_1247/p1uhs16_1247--p1udt22164/Loads.dss
Redirect p1uhs16_1247/p1uhs16_1247--p1udt7988/Loads.dss
Redirect p1uhs16_1247/p1uhs16_1247--p1udt11006/Loads.dss
Redirect p1uhs16_1247/p1uhs16_1247--p1udt16473/Loads.dss
Redirect p1uhs12_1247/p1uhs12_1247--p1udt14325/Loads.dss
Redirect p1uhs12_1247/p1uhs12_1247--p1udt11164/Loads.dss
Redirect p1uhs12_1247/p1uhs12_1247--p1udt8950/Loads.dss
Redirect p1uhs12_1247/p1uhs12_1247--p1udt8568/Loads.dss
Redirect p1uhs12_1247/p1uhs12_1247--p1udt23696/Loads.dss
Redirect p1uhs12_1247/p1uhs12_1247--p1udt23867/Loads.dss
Redirect p1uhs0_1247/p1uhs0_1247--p1udt22170/Loads.dss
Redirect p1uhs0_1247/p1uhs0_1247--p1udt12703/Loads.dss
Redirect p1uhs0_1247/p1uhs0_1247--p1udt2142/Loads.dss
Redirect p1uhs2_1247/p1uhs2_1247--p1udt9621/Loads.dss
Redirect p1uhs2_1247/p1uhs2_1247--p1udt8846/Loads.dss
Redirect p1uhs2_1247/p1uhs2_1247--p1udt18962/Loads.dss
Redirect p1uhs2_1247/p1uhs2_1247--p1udt18580/Loads.dss
Redirect p1uhs2_1247/p1uhs2_1247--p1udt18369/Loads.dss
Redirect p1uhs2_1247/p1uhs2_1247--p1udt899/Loads.dss
Redirect p1uhs6_1247/p1uhs6_1247--p1udt14764/Loads.dss
Redirect p1uhs6_1247/p1uhs6_1247--p1udt322/Loads.dss
Redirect p1uhs6_1247/p1uhs6_1247--p1udt7653/Loads.dss
Redirect p1uhs9_1247/p1uhs9_1247--p1udt19234/Loads.dss
Redirect p1uhs9_1247/p1uhs9_1247--p1udt13121/Loads.dss
Redirect p1uhs9_1247/p1uhs9_1247--p1udt20362/Loads.dss
Redirect p1uhs9_1247/p1uhs9_1247--p1udt20692/Loads.dss
Redirect p1uhs9_1247/p1uhs9_1247--p1udt25123/Loads.dss
Redirect p1uhs9_1247/p1uhs9_1247--p1udt20546/Loads.dss
Redirect p1uhs9_1247/p1uhs9_1247--p1udt387/Loads.dss
Redirect p1uhs9_1247/p1uhs9_1247--p1udt22357/Loads.dss
Redirect p1uhs9_1247/p1uhs9_1247--p1udt21523/Loads.dss
Redirect p1uhs9_1247/p1uhs9_1247--p1udt21819/Loads.dss
Redirect p1uhs9_1247/p1uhs9_1247--p1udt13187/Loads.dss
Redirect p1uhs9_1247/p1uhs9_1247--p1udt4409/Loads.dss
Redirect p1uhs9_1247/p1uhs9_1247--p1udt22325/Loads.dss
Redirect p1uhs9_1247/p1uhs9_1247--p1udt6854/Loads.dss
Redirect p1uhs15_1247/p1uhs15_1247--p1udt17622/Loads.dss
Redirect p1uhs15_1247/p1uhs15_1247--p1udt9658/Loads.dss
Redirect p1uhs15_1247/p1uhs15_1247--p1udt2795/Loads.dss
Redirect p1uhs11_1247/p1uhs11_1247--p1udt12111/Loads.dss
Redirect p1uhs11_1247/p1uhs11_1247--p1udt22445/Loads.dss
Redirect p1uhs11_1247/p1uhs11_1247--p1udt25287/Loads.dss
Redirect p1uhs4_1247/p1uhs4_1247--p1udt7282/Loads.dss
Redirect p1uhs4_1247/p1uhs4_1247--p1udt21090/Loads.dss
Redirect p1uhs7_1247/p1uhs7_1247--p1udt1702/Loads.dss
Redirect p1uhs7_1247/p1uhs7_1247--p1udt14301/Loads.dss
Redirect p1uhs22_1247/p1uhs22_1247--p1udt6863/Loads.dss
Redirect p1uhs22_1247/p1uhs22_1247--p1udt24311/Loads.dss
Redirect p1uhs22_1247/p1uhs22_1247--p1udt20099/Loads.dss
Redirect p1uhs22_1247/p1uhs22_1247--p1udt24624/Loads.dss
Redirect p1uhs13_1247/p1uhs13_1247--p1udt12530/Loads.dss
Redirect p1uhs13_1247/p1uhs13_1247--p1udt8187/Loads.dss
Redirect p1uhs13_1247/p1uhs13_1247--p1udt21698/Loads.dss
Redirect p1uhs13_1247/p1uhs13_1247--p1udt10118/Loads.dss
Redirect p1uhs13_1247/p1uhs13_1247--p1udt3522/Loads.dss
Redirect p1uhs23_1247/p1uhs23_1247--p1udt25139/Loads.dss
Redirect p1uhs23_1247/p1uhs23_1247--p1udt21301/Loads.dss
Redirect p1uhs18_1247/p1uhs18_1247--p1udt20846/Loads.dss
Redirect p1uhs18_1247/p1uhs18_1247--p1udt6910/Loads.dss
Redirect p1uhs18_1247/p1uhs18_1247--p1udt15617/Loads.dss
Redirect p1uhs24_1247/p1uhs24_1247--p1umv22/Loads.dss
Redirect p1uhs24_1247/p1uhs24_1247--p1umv26/Loads.dss
Redirect p1uhs19_1247/LineCodes.dss
Redirect p1uhs19_1247/p1uhs19_1247--p1udt14631/LineCodes.dss
Redirect p1uhs19_1247/p1uhs19_1247--p1udt17263/LineCodes.dss
Redirect p1uhs5_1247/p1uhs5_1247--p1udt13240/LineCodes.dss
Redirect p1uhs5_1247/LineCodes.dss
Redirect p1uhs5_1247/p1uhs5_1247--p1udt19613/LineCodes.dss
Redirect p1uhs5_1247/p1uhs5_1247--p1udt21449/LineCodes.dss
Redirect p1uhs10_1247/LineCodes.dss
Redirect p1uhs10_1247/p1uhs10_1247--p1udt14394/LineCodes.dss
Redirect p1uhs10_1247/p1uhs10_1247--p1udt20878/LineCodes.dss
Redirect p1uhs10_1247/p1uhs10_1247--p1udt12591/LineCodes.dss
Redirect p1uhs10_1247/p1uhs10_1247--p1udt6120/LineCodes.dss
Redirect p1uhs10_1247/p1uhs10_1247--p1udt22980/LineCodes.dss
Redirect p1uhs3_1247/LineCodes.dss
Redirect p1uhs3_1247/p1uhs3_1247--p1udt13260/LineCodes.dss
Redirect p1uhs3_1247/p1uhs3_1247--p1udt6119/LineCodes.dss
Redirect p1uhs14_1247/LineCodes.dss
Redirect p1uhs14_1247/p1uhs14_1247--p1udt6143/LineCodes.dss
Redirect p1uhs14_1247/p1uhs14_1247--p1udt7899/LineCodes.dss
Redirect p1uhs14_1247/p1uhs14_1247--p1udt9467/LineCodes.dss
Redirect p1uhs14_1247/p1uhs14_1247--p1udt21168/LineCodes.dss
Redirect p1uhs17_1247/LineCodes.dss
Redirect p1uhs17_1247/p1uhs17_1247--p1udt19976/LineCodes.dss
Redirect p1uhs17_1247/p1uhs17_1247--p1udt21587/LineCodes.dss
Redirect p1uhs17_1247/p1uhs17_1247--p1udt1947/LineCodes.dss
Redirect p1uhs1_1247/p1uhs1_1247--p1udt10929/LineCodes.dss
Redirect p1uhs1_1247/p1uhs1_1247--p1udt138/LineCodes.dss
Redirect p1uhs1_1247/LineCodes.dss
Redirect p1uhs1_1247/p1uhs1_1247--p1udt14149/LineCodes.dss
Redirect p1uhs20_1247/p1uhs20_1247--p1udt10621/LineCodes.dss
Redirect p1uhs20_1247/LineCodes.dss
Redirect p1uhs20_1247/p1uhs20_1247--p1udt1456/LineCodes.dss
Redirect p1uhs20_1247/p1uhs20_1247--p1udt16446/LineCodes.dss
Redirect p1uhs20_1247/p1uhs20_1247--p1udt2578/LineCodes.dss
Redirect p1uhs8_1247/p1uhs8_1247--p1udt4671/LineCodes.dss
Redirect p1uhs8_1247/p1uhs8_1247--p1udt22258/LineCodes.dss
Redirect p1uhs8_1247/p1uhs8_1247--p1udt2544/LineCodes.dss
Redirect p1uhs8_1247/LineCodes.dss
Redirect p1uhs21_1247/p1uhs21_1247--p1udt11662/LineCodes.dss
Redirect p1uhs21_1247/LineCodes.dss
Redirect p1uhs21_1247/p1uhs21_1247--p1udt16206/LineCodes.dss
Redirect p1uhs21_1247/p1uhs21_1247--p1udt5257/LineCodes.dss
Redirect p1uhs21_1247/p1uhs21_1247--p1udt20780/LineCodes.dss
Redirect p1uhs16_1247/LineCodes.dss
Redirect p1uhs16_1247/p1uhs16_1247--p1udt22164/LineCodes.dss
Redirect p1uhs16_1247/p1uhs16_1247--p1udt7988/LineCodes.dss
Redirect p1uhs16_1247/p1uhs16_1247--p1udt16473/LineCodes.dss
Redirect p1uhs16_1247/p1uhs16_1247--p1udt11006/LineCodes.dss
Redirect p1uhs12_1247/LineCodes.dss
Redirect p1uhs12_1247/p1uhs12_1247--p1udt14325/LineCodes.dss
Redirect p1uhs12_1247/p1uhs12_1247--p1udt11164/LineCodes.dss
Redirect p1uhs12_1247/p1uhs12_1247--p1udt8950/LineCodes.dss
Redirect p1uhs12_1247/p1uhs12_1247--p1udt8568/LineCodes.dss
Redirect p1uhs12_1247/p1uhs12_1247--p1udt23696/LineCodes.dss
Redirect p1uhs12_1247/p1uhs12_1247--p1udt23867/LineCodes.dss
Redirect p1uhs0_1247/LineCodes.dss
Redirect p1uhs0_1247/p1uhs0_1247--p1udt22170/LineCodes.dss
Redirect p1uhs0_1247/p1uhs0_1247--p1udt12703/LineCodes.dss
Redirect p1uhs0_1247/p1uhs0_1247--p1udt2142/LineCodes.dss
Redirect p1uhs6_1247/p1uhs6_1247--p1udt14764/LineCodes.dss
Redirect p1uhs6_1247/p1uhs6_1247--p1udt322/LineCodes.dss
Redirect p1uhs6_1247/p1uhs6_1247--p1udt7653/LineCodes.dss
Redirect p1uhs6_1247/LineCodes.dss
Redirect p1uhs2_1247/LineCodes.dss
Redirect p1uhs2_1247/p1uhs2_1247--p1udt9621/LineCodes.dss
Redirect p1uhs2_1247/p1uhs2_1247--p1udt8846/LineCodes.dss
Redirect p1uhs2_1247/p1uhs2_1247--p1udt18962/LineCodes.dss
Redirect p1uhs2_1247/p1uhs2_1247--p1udt18369/LineCodes.dss
Redirect p1uhs2_1247/p1uhs2_1247--p1udt18580/LineCodes.dss
Redirect p1uhs2_1247/p1uhs2_1247--p1udt899/LineCodes.dss
Redirect p1uhs9_1247/p1uhs9_1247--p1udt6854/LineCodes.dss
Redirect p1uhs9_1247/LineCodes.dss
Redirect p1uhs9_1247/p1uhs9_1247--p1udt19234/LineCodes.dss
Redirect p1uhs9_1247/p1uhs9_1247--p1udt13121/LineCodes.dss
Redirect p1uhs9_1247/p1uhs9_1247--p1udt20362/LineCodes.dss
Redirect p1uhs9_1247/p1uhs9_1247--p1udt20546/LineCodes.dss
Redirect p1uhs9_1247/p1uhs9_1247--p1udt25123/LineCodes.dss
Redirect p1uhs9_1247/p1uhs9_1247--p1udt387/LineCodes.dss
Redirect p1uhs9_1247/p1uhs9_1247--p1udt22357/LineCodes.dss
Redirect p1uhs9_1247/p1uhs9_1247--p1udt21523/LineCodes.dss
Redirect p1uhs9_1247/p1uhs9_1247--p1udt21819/LineCodes.dss
Redirect p1uhs9_1247/p1uhs9_1247--p1udt13187/LineCodes.dss
Redirect p1uhs9_1247/p1uhs9_1247--p1udt4409/LineCodes.dss
Redirect p1uhs9_1247/p1uhs9_1247--p1udt22325/LineCodes.dss
Redirect p1uhs9_1247/p1uhs9_1247--p1udt20692/LineCodes.dss
Redirect p1uhs15_1247/LineCodes.dss
Redirect p1uhs15_1247/p1uhs15_1247--p1udt17622/LineCodes.dss
Redirect p1uhs15_1247/p1uhs15_1247--p1udt9658/LineCodes.dss
Redirect p1uhs15_1247/p1uhs15_1247--p1udt2795/LineCodes.dss
Redirect p1uhs11_1247/LineCodes.dss
Redirect p1uhs11_1247/p1uhs11_1247--p1udt12111/LineCodes.dss
Redirect p1uhs11_1247/p1uhs11_1247--p1udt22445/LineCodes.dss
Redirect p1uhs11_1247/p1uhs11_1247--p1udt25287/LineCodes.dss
Redirect p1uhs4_1247/LineCodes.dss
Redirect p1uhs4_1247/p1uhs4_1247--p1udt7282/LineCodes.dss
Redirect p1uhs4_1247/p1uhs4_1247--p1udt21090/LineCodes.dss
Redirect p1uhs7_1247/LineCodes.dss
Redirect p1uhs7_1247/p1uhs7_1247--p1udt1702/LineCodes.dss
Redirect p1uhs7_1247/p1uhs7_1247--p1udt14301/LineCodes.dss
Redirect p1uhs22_1247/LineCodes.dss
Redirect p1uhs22_1247/p1uhs22_1247--p1udt24311/LineCodes.dss
Redirect p1uhs22_1247/p1uhs22_1247--p1udt20099/LineCodes.dss
Redirect p1uhs22_1247/p1uhs22_1247--p1udt24624/LineCodes.dss
Redirect p1uhs22_1247/p1uhs22_1247--p1udt6863/LineCodes.dss
Redirect p1uhs13_1247/LineCodes.dss
Redirect p1uhs13_1247/p1uhs13_1247--p1udt12530/LineCodes.dss
Redirect p1uhs13_1247/p1uhs13_1247--p1udt8187/LineCodes.dss
Redirect p1uhs13_1247/p1uhs13_1247--p1udt21698/LineCodes.dss
Redirect p1uhs13_1247/p1uhs13_1247--p1udt10118/LineCodes.dss
Redirect p1uhs13_1247/p1uhs13_1247--p1udt3522/LineCodes.dss
Redirect p1uhs23_1247/LineCodes.dss
Redirect p1uhs23_1247/p1uhs23_1247--p1udt25139/LineCodes.dss
Redirect p1uhs23_1247/p1uhs23_1247--p1udt21301/LineCodes.dss
Redirect p1uhs18_1247/LineCodes.dss
Redirect p1uhs18_1247/p1uhs18_1247--p1udt20846/LineCodes.dss
Redirect p1uhs18_1247/p1uhs18_1247--p1udt6910/LineCodes.dss
Redirect p1uhs18_1247/p1uhs18_1247--p1udt15617/LineCodes.dss
Redirect p1uhs24_1247/LineCodes.dss
Redirect p1uhs24_1247/p1uhs24_1247--p1umv22/LineCodes.dss
Redirect p1uhs24_1247/p1uhs24_1247--p1umv26/LineCodes.dss
Redirect subtransmission/LineCodes.dss
Redirect p1uhs19_1247/Lines.dss
Redirect p1uhs19_1247/p1uhs19_1247--p1udt14631/Lines.dss
Redirect p1uhs19_1247/p1uhs19_1247--p1udt17263/Lines.dss
Redirect p1uhs5_1247/p1uhs5_1247--p1udt13240/Lines.dss
Redirect p1uhs5_1247/Lines.dss
Redirect p1uhs5_1247/p1uhs5_1247--p1udt19613/Lines.dss
Redirect p1uhs5_1247/p1uhs5_1247--p1udt21449/Lines.dss
Redirect p1uhs10_1247/Lines.dss
Redirect p1uhs10_1247/p1uhs10_1247--p1udt14394/Lines.dss
Redirect p1uhs10_1247/p1uhs10_1247--p1udt20878/Lines.dss
Redirect p1uhs10_1247/p1uhs10_1247--p1udt12591/Lines.dss
Redirect p1uhs10_1247/p1uhs10_1247--p1udt6120/Lines.dss
Redirect p1uhs10_1247/p1uhs10_1247--p1udt22980/Lines.dss
Redirect p1uhs3_1247/Lines.dss
Redirect p1uhs3_1247/p1uhs3_1247--p1udt13260/Lines.dss
Redirect p1uhs3_1247/p1uhs3_1247--p1udt6119/Lines.dss
Redirect p1uhs14_1247/Lines.dss
Redirect p1uhs14_1247/p1uhs14_1247--p1udt6143/Lines.dss
Redirect p1uhs14_1247/p1uhs14_1247--p1udt7899/Lines.dss
Redirect p1uhs14_1247/p1uhs14_1247--p1udt9467/Lines.dss
Redirect p1uhs14_1247/p1uhs14_1247--p1udt21168/Lines.dss
Redirect p1uhs17_1247/Lines.dss
Redirect p1uhs17_1247/p1uhs17_1247--p1udt19976/Lines.dss
Redirect p1uhs17_1247/p1uhs17_1247--p1udt21587/Lines.dss
Redirect p1uhs17_1247/p1uhs17_1247--p1udt1947/Lines.dss
Redirect p1uhs1_1247/p1uhs1_1247--p1udt10929/Lines.dss
Redirect p1uhs1_1247/p1uhs1_1247--p1udt138/Lines.dss
Redirect p1uhs1_1247/Lines.dss
Redirect p1uhs1_1247/p1uhs1_1247--p1udt14149/Lines.dss
Redirect p1uhs20_1247/p1uhs20_1247--p1udt10621/Lines.dss
Redirect p1uhs20_1247/Lines.dss
Redirect p1uhs20_1247/p1uhs20_1247--p1udt1456/Lines.dss
Redirect p1uhs20_1247/p1uhs20_1247--p1udt16446/Lines.dss
Redirect p1uhs20_1247/p1uhs20_1247--p1udt2578/Lines.dss
Redirect p1uhs8_1247/p1uhs8_1247--p1udt4671/Lines.dss
Redirect p1uhs8_1247/p1uhs8_1247--p1udt22258/Lines.dss
Redirect p1uhs8_1247/p1uhs8_1247--p1udt2544/Lines.dss
Redirect p1uhs8_1247/Lines.dss
Redirect p1uhs21_1247/p1uhs21_1247--p1udt11662/Lines.dss
Redirect p1uhs21_1247/Lines.dss
Redirect p1uhs21_1247/p1uhs21_1247--p1udt16206/Lines.dss
Redirect p1uhs21_1247/p1uhs21_1247--p1udt5257/Lines.dss
Redirect p1uhs21_1247/p1uhs21_1247--p1udt20780/Lines.dss
Redirect p1uhs16_1247/Lines.dss
Redirect p1uhs16_1247/p1uhs16_1247--p1udt22164/Lines.dss
Redirect p1uhs16_1247/p1uhs16_1247--p1udt7988/Lines.dss
Redirect p1uhs16_1247/p1uhs16_1247--p1udt16473/Lines.dss
Redirect p1uhs16_1247/p1uhs16_1247--p1udt11006/Lines.dss
Redirect p1uhs12_1247/Lines.dss
Redirect p1uhs12_1247/p1uhs12_1247--p1udt14325/Lines.dss
Redirect p1uhs12_1247/p1uhs12_1247--p1udt11164/Lines.dss
Redirect p1uhs12_1247/p1uhs12_1247--p1udt8950/Lines.dss
Redirect p1uhs12_1247/p1uhs12_1247--p1udt8568/Lines.dss
Redirect p1uhs12_1247/p1uhs12_1247--p1udt23696/Lines.dss
Redirect p1uhs12_1247/p1uhs12_1247--p1udt23867/Lines.dss
Redirect p1uhs0_1247/Lines.dss
Redirect p1uhs0_1247/p1uhs0_1247--p1udt22170/Lines.dss
Redirect p1uhs0_1247/p1uhs0_1247--p1udt12703/Lines.dss
Redirect p1uhs0_1247/p1uhs0_1247--p1udt2142/Lines.dss
Redirect p1uhs6_1247/p1uhs6_1247--p1udt14764/Lines.dss
Redirect p1uhs6_1247/p1uhs6_1247--p1udt322/Lines.dss
Redirect p1uhs6_1247/p1uhs6_1247--p1udt7653/Lines.dss
Redirect p1uhs6_1247/Lines.dss
Redirect p1uhs2_1247/Lines.dss
Redirect p1uhs2_1247/p1uhs2_1247--p1udt9621/Lines.dss
Redirect p1uhs2_1247/p1uhs2_1247--p1udt8846/Lines.dss
Redirect p1uhs2_1247/p1uhs2_1247--p1udt18962/Lines.dss
Redirect p1uhs2_1247/p1uhs2_1247--p1udt18369/Lines.dss
Redirect p1uhs2_1247/p1uhs2_1247--p1udt18580/Lines.dss
Redirect p1uhs2_1247/p1uhs2_1247--p1udt899/Lines.dss
Redirect p1uhs9_1247/p1uhs9_1247--p1udt6854/Lines.dss
Redirect p1uhs9_1247/Lines.dss
Redirect p1uhs9_1247/p1uhs9_1247--p1udt19234/Lines.dss
Redirect p1uhs9_1247/p1uhs9_1247--p1udt13121/Lines.dss
Redirect p1uhs9_1247/p1uhs9_1247--p1udt20362/Lines.dss
Redirect p1uhs9_1247/p1uhs9_1247--p1udt20546/Lines.dss
Redirect p1uhs9_1247/p1uhs9_1247--p1udt25123/Lines.dss
Redirect p1uhs9_1247/p1uhs9_1247--p1udt387/Lines.dss
Redirect p1uhs9_1247/p1uhs9_1247--p1udt22357/Lines.dss
Redirect p1uhs9_1247/p1uhs9_1247--p1udt21523/Lines.dss
Redirect p1uhs9_1247/p1uhs9_1247--p1udt21819/Lines.dss
Redirect p1uhs9_1247/p1uhs9_1247--p1udt13187/Lines.dss
Redirect p1uhs9_1247/p1uhs9_1247--p1udt4409/Lines.dss
Redirect p1uhs9_1247/p1uhs9_1247--p1udt22325/Lines.dss
Redirect p1uhs9_1247/p1uhs9_1247--p1udt20692/Lines.dss
Redirect p1uhs15_1247/Lines.dss
Redirect p1uhs15_1247/p1uhs15_1247--p1udt17622/Lines.dss
Redirect p1uhs15_1247/p1uhs15_1247--p1udt9658/Lines.dss
Redirect p1uhs15_1247/p1uhs15_1247--p1udt2795/Lines.dss
Redirect p1uhs11_1247/Lines.dss
Redirect p1uhs11_1247/p1uhs11_1247--p1udt12111/Lines.dss
Redirect p1uhs11_1247/p1uhs11_1247--p1udt22445/Lines.dss
Redirect p1uhs11_1247/p1uhs11_1247--p1udt25287/Lines.dss
Redirect p1uhs4_1247/Lines.dss
Redirect p1uhs4_1247/p1uhs4_1247--p1udt7282/Lines.dss
Redirect p1uhs4_1247/p1uhs4_1247--p1udt21090/Lines.dss
Redirect p1uhs7_1247/Lines.dss
Redirect p1uhs7_1247/p1uhs7_1247--p1udt1702/Lines.dss
Redirect p1uhs7_1247/p1uhs7_1247--p1udt14301/Lines.dss
Redirect p1uhs22_1247/Lines.dss
Redirect p1uhs22_1247/p1uhs22_1247--p1udt24311/Lines.dss
Redirect p1uhs22_1247/p1uhs22_1247--p1udt20099/Lines.dss
Redirect p1uhs22_1247/p1uhs22_1247--p1udt24624/Lines.dss
Redirect p1uhs22_1247/p1uhs22_1247--p1udt6863/Lines.dss
Redirect p1uhs13_1247/Lines.dss
Redirect p1uhs13_1247/p1uhs13_1247--p1udt12530/Lines.dss
Redirect p1uhs13_1247/p1uhs13_1247--p1udt8187/Lines.dss
Redirect p1uhs13_1247/p1uhs13_1247--p1udt21698/Lines.dss
Redirect p1uhs13_1247/p1uhs13_1247--p1udt10118/Lines.dss
Redirect p1uhs13_1247/p1uhs13_1247--p1udt3522/Lines.dss
Redirect p1uhs23_1247/Lines.dss
Redirect p1uhs23_1247/p1uhs23_1247--p1udt25139/Lines.dss
Redirect p1uhs23_1247/p1uhs23_1247--p1udt21301/Lines.dss
Redirect p1uhs18_1247/Lines.dss
Redirect p1uhs18_1247/p1uhs18_1247--p1udt20846/Lines.dss
Redirect p1uhs18_1247/p1uhs18_1247--p1udt6910/Lines.dss
Redirect p1uhs18_1247/p1uhs18_1247--p1udt15617/Lines.dss
Redirect p1uhs24_1247/Lines.dss
Redirect p1uhs24_1247/p1uhs24_1247--p1umv22/Lines.dss
Redirect p1uhs24_1247/p1uhs24_1247--p1umv26/Lines.dss
Redirect subtransmission/Lines.dss
Redirect p1uhs0_1247/p1uhs0_1247--p1udt12703/Capacitors.dss
Redirect p1uhs0_1247/p1uhs0_1247--p1udt2142/Capacitors.dss
Redirect p1uhs1_1247/p1uhs1_1247--p1udt138/Capacitors.dss
Redirect p1uhs1_1247/p1uhs1_1247--p1udt14149/Capacitors.dss
Redirect p1uhs2_1247/p1uhs2_1247--p1udt9621/Capacitors.dss
Redirect p1uhs2_1247/p1uhs2_1247--p1udt8846/Capacitors.dss
Redirect p1uhs2_1247/p1uhs2_1247--p1udt18962/Capacitors.dss
Redirect p1uhs2_1247/p1uhs2_1247--p1udt18369/Capacitors.dss
Redirect p1uhs2_1247/p1uhs2_1247--p1udt899/Capacitors.dss
Redirect p1uhs3_1247/p1uhs3_1247--p1udt13260/Capacitors.dss
Redirect p1uhs4_1247/p1uhs4_1247--p1udt7282/Capacitors.dss
Redirect p1uhs4_1247/p1uhs4_1247--p1udt21090/Capacitors.dss
Redirect p1uhs5_1247/p1uhs5_1247--p1udt13240/Capacitors.dss
Redirect p1uhs5_1247/p1uhs5_1247--p1udt19613/Capacitors.dss
Redirect p1uhs5_1247/p1uhs5_1247--p1udt21449/Capacitors.dss
Redirect p1uhs6_1247/p1uhs6_1247--p1udt14764/Capacitors.dss
Redirect p1uhs6_1247/p1uhs6_1247--p1udt322/Capacitors.dss
Redirect p1uhs7_1247/p1uhs7_1247--p1udt1702/Capacitors.dss
Redirect p1uhs7_1247/p1uhs7_1247--p1udt14301/Capacitors.dss
Redirect p1uhs8_1247/p1uhs8_1247--p1udt22258/Capacitors.dss
Redirect p1uhs8_1247/p1uhs8_1247--p1udt4671/Capacitors.dss
Redirect p1uhs8_1247/p1uhs8_1247--p1udt2544/Capacitors.dss
Redirect p1uhs9_1247/p1uhs9_1247--p1udt13121/Capacitors.dss
Redirect p1uhs9_1247/p1uhs9_1247--p1udt25123/Capacitors.dss
Redirect p1uhs9_1247/p1uhs9_1247--p1udt387/Capacitors.dss
Redirect p1uhs9_1247/p1uhs9_1247--p1udt21523/Capacitors.dss
Redirect p1uhs9_1247/p1uhs9_1247--p1udt21819/Capacitors.dss
Redirect p1uhs9_1247/p1uhs9_1247--p1udt13187/Capacitors.dss
Redirect p1uhs9_1247/p1uhs9_1247--p1udt4409/Capacitors.dss
Redirect p1uhs9_1247/p1uhs9_1247--p1udt22325/Capacitors.dss
Redirect p1uhs9_1247/p1uhs9_1247--p1udt6854/Capacitors.dss
Redirect p1uhs10_1247/p1uhs10_1247--p1udt12591/Capacitors.dss
Redirect p1uhs10_1247/p1uhs10_1247--p1udt20878/Capacitors.dss
Redirect p1uhs10_1247/p1uhs10_1247--p1udt14394/Capacitors.dss
Redirect p1uhs10_1247/p1uhs10_1247--p1udt22980/Capacitors.dss
Redirect p1uhs11_1247/p1uhs11_1247--p1udt12111/Capacitors.dss
Redirect p1uhs11_1247/p1uhs11_1247--p1udt25287/Capacitors.dss
Redirect p1uhs12_1247/p1uhs12_1247--p1udt14325/Capacitors.dss
Redirect p1uhs12_1247/p1uhs12_1247--p1udt11164/Capacitors.dss
Redirect p1uhs12_1247/p1uhs12_1247--p1udt8568/Capacitors.dss
Redirect p1uhs12_1247/p1uhs12_1247--p1udt23867/Capacitors.dss
Redirect p1uhs13_1247/p1uhs13_1247--p1udt3522/Capacitors.dss
Redirect p1uhs13_1247/p1uhs13_1247--p1udt10118/Capacitors.dss
Redirect p1uhs13_1247/p1uhs13_1247--p1udt12530/Capacitors.dss
Redirect p1uhs14_1247/p1uhs14_1247--p1udt21168/Capacitors.dss
Redirect p1uhs14_1247/p1uhs14_1247--p1udt9467/Capacitors.dss
Redirect p1uhs15_1247/p1uhs15_1247--p1udt17622/Capacitors.dss
Redirect p1uhs15_1247/p1uhs15_1247--p1udt9658/Capacitors.dss
Redirect p1uhs16_1247/p1uhs16_1247--p1udt22164/Capacitors.dss
Redirect p1uhs16_1247/p1uhs16_1247--p1udt16473/Capacitors.dss
Redirect p1uhs16_1247/p1uhs16_1247--p1udt11006/Capacitors.dss
Redirect p1uhs17_1247/p1uhs17_1247--p1udt19976/Capacitors.dss
Redirect p1uhs17_1247/p1uhs17_1247--p1udt21587/Capacitors.dss
Redirect p1uhs17_1247/p1uhs17_1247--p1udt1947/Capacitors.dss
Redirect p1uhs18_1247/p1uhs18_1247--p1udt20846/Capacitors.dss
Redirect p1uhs18_1247/p1uhs18_1247--p1udt6910/Capacitors.dss
Redirect p1uhs18_1247/p1uhs18_1247--p1udt15617/Capacitors.dss
Redirect p1uhs19_1247/p1uhs19_1247--p1udt14631/Capacitors.dss
Redirect p1uhs19_1247/p1uhs19_1247--p1udt17263/Capacitors.dss
Redirect p1uhs20_1247/p1uhs20_1247--p1udt10621/Capacitors.dss
Redirect p1uhs20_1247/p1uhs20_1247--p1udt1456/Capacitors.dss
Redirect p1uhs20_1247/p1uhs20_1247--p1udt16446/Capacitors.dss
Redirect p1uhs20_1247/p1uhs20_1247--p1udt2578/Capacitors.dss
Redirect p1uhs21_1247/p1uhs21_1247--p1udt11662/Capacitors.dss
Redirect p1uhs21_1247/p1uhs21_1247--p1udt20780/Capacitors.dss
Redirect p1uhs21_1247/p1uhs21_1247--p1udt16206/Capacitors.dss
Redirect p1uhs22_1247/p1uhs22_1247--p1udt6863/Capacitors.dss
Redirect p1uhs22_1247/p1uhs22_1247--p1udt24311/Capacitors.dss
Redirect p1uhs22_1247/p1uhs22_1247--p1udt20099/Capacitors.dss
Redirect p1uhs23_1247/p1uhs23_1247--p1udt25139/Capacitors.dss

Set Voltagebases=[0.2080002494301389, 0.48, 7.199560000000001, 12.47, 69.0, 230.0]

Calcvoltagebases

Buscoords Buscoords.dss

Solve